/NOPR   
KEYW,PR_SET,1   
KEYW,PR_STRUC,1 
/PREP7  
ET,1,SOLID185   
MPTEMP,,,,,,,,  
MPTEMP,1,0  
MPDATA,EX,1,,2e11   
MPDATA,PRXY,1,,0.3  
BLOCK,-0.05,0.05,-0.05,0.05,,1, 
LESIZE,ALL,0.02, , , ,1, , ,1,  
VSWEEP,ALL
DA,1,ALL,
F,491,FY,-10000 
/SOL
/STATUS,SOLU
SOLVE   
/POST1  
/DSCALE,ALL,1.0 
/EFACET,1   
PLNSOL, S,EQV, 0,1.0
