FINISH
/CLEAR,NOSTART


/NOPR
KEYW,PR_SET,1
KEYW,PR_STRUC,1
KEYW,LSDYNA,1
KEYW,PR_DYNA,1
/CWD,'C:\Users\Cliff\Desktop\tmp\2D_pullout'

PI = acos(-1)
H = 75  !total depth of specimen (mm)
r = 1	!spiral fibre coil radius (mm)
r_outer = 3*r   !outer radius of outer cylindar
s = 10 	!spiral fibre pitch (mm)
n = 16	!division in single pitch (n must be multiple of 4)     !!!!temporarily fixed to 16, due to tmp(17,1,1)!!!!
D = n/4   !division in 90 degrees
!p = 2+1/n	!spital fibre total pitch number (must be an integer plus integral multiple of 1/n)
p = 1	!spital fibre total pitch number (must be an integer plus integral multiple of 1/n)
theta = p*360	!spiral fibre total rotation angle (DEG)
margin = r/D  !margin from fibre to outer cylindar (mm)
K_num = p*n+1	!total node number in one spiral fibre
L_num = K_num-1 !total element number in one spiral fibre
r_beam = 0.25   !radius of fibre section (mm)
f_num = 1	!number of fibres

/PREP7
ET,1,SHELL163
ET,2,LINK160
R,1,r_beam,  !section area for fibre
MP,DENS,1,0.0024    !material properties
MP,EX,1,2e4
MP,NUXY,1,0.2
MP,DENS,2,0.0078
MP,EX,2,2e5
MP,NUXY,2,0.28
*DIM,F_NODES,ARRAY,f_num*(n*p+1),1,1, , ,   !fibre nodes for 1D contact
*DIM,C_NODES,ARRAY,f_num*(n*p+1),1,1, , ,   !concrete nodes for 1D contact


*DIM,SPLINE,ARRAY,f_num*(n*p+1),2,1, , ,
*DIM,K_spline,ARRAY,f_num*(n*p+1),1,1, , ,
*DO,i,0,n*p,1   !keypoints for spline
    *SET,SPLINE(i+1,1,1),s*p/n*i
    *SET,SPLINE(i+1,2,1),r*sin(2*PI/s/p*SPLINE(i+1,1,1))
    K,,SPLINE(i+1,1,1),SPLINE(i+1,2,1)
    *GET,K_max,KP,0,NUM,MAX
    *SET,K_spline(i+1,1,1),K_max
*ENDDO
*DO,i,1,n*p-1,1   !draw spline
    LSTR,K_spline(i,1,1),K_spline(i+1,1,1)
*ENDDO
K,1000,,,1, !temporary keypoint, for local coordinate only
CSKP,11,0,1,2,1000,1,1, !local coordinate system
CSYS,11,
WPCSYS,-1   




















! ... 14 like lines cut
!RECTNG,0,s*p,0,r,
!RECTNG,s*p,H,0,r,
!RECTNG,0,s*p,r,H/2,
!RECTNG,s*p,H,r,H/2,
!AGLUE,ALL
!AATT,1,1,1,0
!LSEL,S,LOC,X,0.25*s*p,0.5*s*p
!LESIZE,ALL,s/n, , , ,1, , ,0,
!ALLSEL,ALL
!LSEL,S,LOC,X,0.5*H,0.75*H
!LESIZE,ALL,2*s/n, , , ,1, , ,0,
!ALLSEL,ALL
!LSEL,S,LOC,Y,0.25*r,0.75*r
!LESIZE,ALL,s/n/2, , , ,1, , ,0,
!ALLSEL,ALL
!LSEL,S,LOC,Y,0.25*H,0.45*H
!LESIZE,ALL,2*s/n, , , ,1, , ,0,
!ALLSEL,ALL
!MSHKEY,1
!AMESH,ALL
!ARSYM,Y,ALL, , , ,0,0
!NUMMRG,ALL, , , ,LOW   
!NUMCMP,ALL  



!*DO,i,1,n*p+1,1 !draw nodes for single fibre
!    x1=(i-1)*s*p/n-p/n/2
!    x2=(i-1)*s*p/n+p/n/2
!    NSEL,S,LOC,X,x1,x2
!    y1=tmp(i,1,1)*r/(n/4)-r/(n/4)/2
!    y2=tmp(i,1,1)*r/(n/4)+r/(n/4)/2
!    NSEL,R,LOC,Y,y1,y2
!    *GET,ijk,NODE,0,NUM,MIN
!    *SET,C_NODES(i,1,1),ijk
!    *GET,iii,NODE,ijk,LOC,X
!    *GET,jjj,NODE,ijk,LOC,Y
!    N,,iii,jjj
!	*GET,N_max,NODE,0,NUM,MAX	!n_max for temporarily storing maximum node number
!	*SET,F_NODES(i,1,1),N_max
!    ALLSEL,ALL
!*ENDDO
!
!
!TYPE,2
!MAT,2
!REAL,1
!ESYS,0
!SECNUM,
!*SET,F_node_min,F_NODES(1,1,1)
!*DO,i,0,n*p-1,1   !draw beam elements for single fibre
!    E,F_node_min+i,F_node_min+i+1
!*ENDDO
!WPCSYS,-1,0

!*DO,i,1,f_num*(n*p+1),1 !concrete nodes for 1D contact
!    *SET,j,C_NODES(i,1,1)
!    *IF,i,eq,1,then
!        NSEL,S,,,j
!    *ELSE
!        NSEL,A,,,j
!    *ENDIF
!*ENDDO
!CM,C_NODES,NODE
!CMSEL,A,C_NODES
!ALLSEL,ALL
!
!*DO,i,1,f_num*(n*p+1),1 !fibre nodes for 1D contact
!    *SET,j,F_NODES(i,1,1)
!    *IF,i,eq,1,then
!        NSEL,S,,,j
!    *ELSE
!        NSEL,A,,,j
!    *ENDIF
!*ENDDO
!CM,F_NODES,NODE
!CMSEL,A,F_NODES
!ALLSEL,ALL
!
!CMSEL,S,C_NODES 	!concrete node set for 1D contact
!D,ALL, , , , , ,UX, , , , ,
!ALLSEL,ALL
!CMSEL,S,F_NODES 	!fibre node set for 1D contact
!D,ALL, , , , , ,UY, , , , ,
!ALLSEL,ALL
!
!ESEL,S,MAT,,2   !node and beam element for loading
!NSLE,R  
!*GET,n_max,NODE,0,NUM,MAX	!n_max for temporarily storing maximum node number
!NWPAVE,n_max
!CSYS,4  
!N, ,,,s*p,,,,
!CSYS,0
!*GET,nn_max,NODE,0,NUM,MAX	!nn_max for temporarily storing maximum node number
!E,n_max,nn_max
!NSEL,S, , ,nn_max 
!CM,PULL,NODE
!CMSEL,A,PULL
!*DIM,TIME,ARRAY,2,1,1, , ,  
!*SET,TIME(2,1,1) , 60000   
!*DIM,DISP,ARRAY,2,1,1, , ,  
!*SET,DISP(2,1,1) , 1.0
!EDLOAD,ADD,UZ,0,PULL,TIME,DISP, 0, , , , ,  
!ALLSEL,ALL  
!
!ESEL,S,MAT,,1   !merge concrete nodes
!NSLE,R  
!NUMMRG,NODE, , , ,LOW   
!ALLSEL,ALL  
!
!ASEL,S,LOC,Z,-(H-s*p)  !fix end
!NSLA,R,1
!D,ALL, , , , , ,ALL, , , , ,   
!ALLSEL,ALL  
!
!
!FINISH
!/SOL
!TIME,3,
!EDRST, ,0.1,
!EDHTIME, ,0,
!EDDUMP, ,0,
!EDWRITE,LSDYNA,'tmp','k',' '
!
